-------------------------------------------------------
          Amber 14 SANDER                              2014
          -------------------------------------------------------

  [-O]verwriting output

File Assignments:

 Here is the input file:

# AD/AD_equ/AD_equ9
 &cntrl
 nstlim=50000,
 gbsa=0,
 temp0=298,
 gamma_ln=5,
 iwrap=0,
 dt=0.002,
 ig=-1,
 cut=9999,
 ntpr=50,
 igb=8,
 ntx=5,
 ntp=0,
 ntt=3,
 ntc=2,
 ntwx=50,
 ntf=2,
 irest=1,
 nscm=50000,
 ioutfm=1,
 /
 END
eof

Note: ig = -1. Setting random seed to    51978 based on wallclock time in
      microseconds.

--------------------------------------------------------------------------------
   1.  RESOURCE   USE:
--------------------------------------------------------------------------------

 NATOM  =      20 NTYPES =       7 NBONH =      10 MBONA  =       9
 NTHETH =      21 MTHETA =      11 NPHIH =      36 MPHIA  =      23
 NHPARM =       0 NPARM  =       0 NNB   =      92 NRES   =       2
 NBONA  =       9 NTHETA =      11 NPHIA =      23 NUMBND =       8
 NUMANG =      14 NPTRA  =      20 NATYP =       8 NPHB   =       0
 IFBOX  =       0 NMXRS  =      10 IFCAP =       0 NEXTRA =       0
 NCOPY  =       0

 Implicit solvent radii are ArgH and AspGluO modified Bondi2 radii (mbondi3)
 Replacing prmtop screening parameters with GBn2 (igb=8) values
--------------------------------------------------------------------------------
   2.  CONTROL  DATA  FOR  THE  RUN
--------------------------------------------------------------------------------

ALA

General flags:
     imin    =       0, nmropt  =       0

Nature and format of input:
     ntx     =       5, irest   =       1, ntrx    =       1

Nature and format of output:
     ntxo    =       1, ntpr    =      50, ntrx    =       1, ntwr    =     500
     iwrap   =       0, ntwx    =      50, ntwv    =       0, ntwe    =       0
     ioutfm  =       1, ntwprt  =       0, idecomp =       0, rbornstat=      0

Potential function:
     ntf     =       2, ntb     =       0, igb     =       8, nsnb    =      25
     ipol    =       0, gbsa    =       0, iesp    =       0
     dielc   =   1.00000, cut     =9999.00000, intdiel =   1.00000
     saltcon =   0.00000, offset  =   0.19514, surften =   0.00500
     rdt     =   0.00000, rgbmax  =  25.00000  extdiel =  78.50000
     alpb  =        0
     gbalphaH  =   0.78844, gbbetaH   =   0.79870,  gbgammaH  =    0.43733
     gbalphaC  =   0.73376, gbbetaC   =   0.50638,  gbgammaC  =    0.20584
     gbalphaN  =   0.50336, gbbetaN   =   0.31683,  gbgammaN  =    0.19292
     gbalphaOS =   0.86781, gbbetaOS  =   0.87664,  gbgammaOS =    0.38788
     gbalphaP  =   1.00000, gbbetaP   =   0.80000,  gbgammaP  =    4.85000

Frozen or restrained atoms:
     ibelly  =       0, ntr     =       0

Molecular dynamics:
     nstlim  =     50000, nscm    =     50000, nrespa  =         1
     t       =   0.00000, dt      =   0.00200, vlimit  =  20.00000

Langevin dynamics temperature regulation:
     ig      =   51978
     temp0   = 298.00000, tempi   =   0.00000, gamma_ln=   5.00000

SHAKE:
     ntc     =       2, jfastw  =       0
     tol     =   0.00001

--------------------------------------------------------------------------------
   3.  ATOMIC COORDINATES AND VELOCITIES
--------------------------------------------------------------------------------

ALA
 begin time read from input coords =  2002.000 ps

 Number of triangulated 3-point waters found:        0

--------------------------------------------------------------------------------
   4.  RESULTS
 NSTEP =       50   TIME(PS) =    2002.100  TEMP(K) =   334.64  PRESS =     0.0
 Etot   =        46.5730  EKtot   =        16.6249  EPtot      =        29.9480
 BOND   =         3.5086  ANGLE   =        13.1692  DIHED      =         8.1248
 1-4 NB =         3.2507  1-4 EEL =       112.0995  VDWAALS    =        -0.0356
 EELEC  =       -92.8534  EGB     =       -17.3157  RESTRAINT  =         0.0000
 ------------------------------------------------------------------------------

      A V E R A G E S   O V E R    1000 S T E P S

 NSTEP =    50000   TIME(PS) =    2102.000  TEMP(K) =   297.31  PRESS =     0.0
 Etot   =        42.4990  EKtot   =        14.7704  EPtot      =        27.7286
 BOND   =         3.7133  ANGLE   =         9.2244  DIHED      =         8.9864
 1-4 NB =         2.7938  1-4 EEL =       112.7392  VDWAALS    =        -0.7524
 EELEC  =       -90.2329  EGB     =       -18.7433  RESTRAINT  =         0.0000
 ------------------------------------------------------------------------------

      R M S  F L U C T U A T I O N S

 NSTEP =    50000   TIME(PS) =    2102.000  TEMP(K) =    58.34  PRESS =     0.0
 Etot   =         4.0626  EKtot   =         2.8983  EPtot      =         2.8195
 BOND   =         1.7263  ANGLE   =         2.3755  DIHED      =         1.0631
 1-4 NB =         0.7749  1-4 EEL =         3.5583  VDWAALS    =         0.6527
 EELEC  =         3.6756  EGB     =         2.1958  RESTRAINT  =         0.0000
 ------------------------------------------------------------------------------
